Hi this is Himanshu Joshi a Senior Software Engineer at X company.
This is my file that I created.
New line.
Hello world.